@<TRIPOS>MOLECULE
resultados/dock6_library_multi/prepared_site/ligand_dock.pdb
 47 52 0 0 0
SMALL
GASTEIGER

@<TRIPOS>ATOM
      1 C           0.5915    2.2991    3.3530 C.ar    1  UNL1        0.1422
      2 C           0.5721    0.9612    2.9800 C.ar    1  UNL1       -0.0120
      3 C           1.6967    0.1741    3.2867 C.ar    1  UNL1        0.0520
      4 C           2.7137    0.7927    3.9874 C.ar    1  UNL1        0.1565
      5 C           1.6848    2.7991    4.0342 C.ar    1  UNL1        0.0651
      6 C           1.5328   -2.1988    2.2094 C.ar    1  UNL1        0.1827
      7 C           1.6843   -4.0554    0.8797 C.ar    1  UNL1        0.0686
      8 C           0.4285   -3.8314    0.3670 C.ar    1  UNL1        0.1809
      9 C          -0.2535   -2.7208    0.8402 C.ar    1  UNL1        0.1585
     10 C          -1.9024   -0.9879    0.4524 C.3     1  UNL1        0.0333
     11 C          -3.3936   -0.7210    0.7544 C.3     1  UNL1        0.0203
     12 C          -3.9651    0.3110   -0.2699 C.3     1  UNL1       -0.0283
     13 C          -3.8672   -0.2704   -1.6767 C.3     1  UNL1       -0.0341
     14 C          -2.4199   -0.5699   -2.0076 C.3     1  UNL1       -0.0331
     15 C          -1.4869   -0.2442   -0.8370 C.3     1  UNL1       -0.0189
     16 C          -1.6265    1.2603   -0.4874 C.3     1  UNL1       -0.0480
     17 C          -3.1166    1.6153   -0.3615 C.3     1  UNL1       -0.0490
     18 C          -3.4620   -1.6715   -2.0437 C.3     1  UNL1       -0.0463
     19 C          -3.5149   -0.2591    2.1929 C.2     1  UNL1        0.0469
     20 C           2.1758   -1.1618    3.0421 C.ar    1  UNL1        0.1387
     21 F          -0.0770   -4.6103   -0.5997 F       1  UNL1       -0.2003
     22 F          -0.4393    3.0933    3.0339 F       1  UNL1       -0.2039
     23 N           2.2650   -3.2529    1.7949 N.ar    1  UNL1       -0.2313
     24 N           0.2859   -1.9275    1.7810 N.ar    1  UNL1       -0.2082
     25 N          -1.5685   -2.4329    0.3841 N.pl3   1  UNL1       -0.3229
     26 N           2.7807    2.0820    4.3879 N.ar    1  UNL1       -0.2332
     27 N           3.6665   -0.1549    4.1860 N.ar    1  UNL1       -0.2595
     28 N           3.3820   -1.3430    3.6249 N.ar    1  UNL1       -0.1683
     29 O          -3.1515   -1.2178    3.0810 O.co2   1  UNL1       -0.5495
     30 O          -3.8896    0.8453    2.5518 O.co2   1  UNL1       -0.5495
     31 H          -0.2428    0.5569    2.4927 H       1  UNL1        0.0654
     32 H           1.6662    3.7975    4.2945 H       1  UNL1        0.0859
     33 H           2.2092   -4.8795    0.5475 H       1  UNL1        0.0861
     34 H          -1.3358   -0.6043    1.2751 H       1  UNL1        0.0507
     35 H          -3.9772   -1.6111    0.6443 H       1  UNL1        0.0381
     36 H          -4.9604    0.5204    0.0626 H       1  UNL1        0.0310
     37 H          -4.7206    0.2796   -2.0147 H       1  UNL1        0.0306
     38 H          -1.6545   -0.3359   -2.7177 H       1  UNL1        0.0307
     39 H          -0.4997   -0.5260   -1.1386 H       1  UNL1        0.0322
     40 H          -1.1826    1.8501   -1.2620 H       1  UNL1        0.0269
     41 H          -1.1303    1.4609    0.4391 H       1  UNL1        0.0269
     42 H          -3.2687    2.2006    0.5212 H       1  UNL1        0.0268
     43 H          -3.4202    2.1742   -1.2219 H       1  UNL1        0.0268
     44 H          -3.7672   -2.0881   -2.9809 H       1  UNL1        0.0271
     45 H          -3.5622   -2.6322   -1.5833 H       1  UNL1        0.0271
     46 H          -2.1929   -3.1201    0.0570 H       1  UNL1        0.1478
     47 H           4.4920    0.0134    4.6954 H       1  UNL1        0.1905
@<TRIPOS>UNITY_ATOM_ATTR
29 1
charge -1
@<TRIPOS>BOND
     1     1    22    1
     2     1     5   ar
     3     1     2   ar
     4     2     3   ar
     5     3     4   ar
     6     3    20   ar
     7     4    26   ar
     8     4    27   ar
     9     5    26   ar
    10     6    24   ar
    11     6    20    1
    12     6    23   ar
    13     7     8   ar
    14     7    23   ar
    15     8     9   ar
    16     8    21    1
    17     9    25    1
    18     9    24   ar
    19    10    15    1
    20    10    11    1
    21    10    25    1
    22    11    12    1
    23    12    17    1
    24    12    13    1
    25    13    14    1
    26    13    18    1
    27    14    18    1
    28    14    15    1
    29    15    16    1
    30    16    17    1
    31    19    30   ar
    32    19    29   ar
    33    20    28   ar
    34    27    28   ar
    35    11    19    1
    36     2    31    1
    37     5    32    1
    38     7    33    1
    39    10    34    1
    40    11    35    1
    41    12    36    1
    42    13    37    1
    43    14    38    1
    44    15    39    1
    45    16    40    1
    46    16    41    1
    47    17    42    1
    48    17    43    1
    49    18    44    1
    50    18    45    1
    51    25    46    1
    52    27    47    1
