@<TRIPOS>MOLECULE
ligand.pdb
 48 53 0 0 0
SMALL
GASTEIGER

@<TRIPOS>ATOM
      1 C          -5.7153   -8.2193   -6.6669 C.ar    1  UNL1        0.1422
      2 C          -5.6053   -7.9191   -5.3160 C.ar    1  UNL1       -0.0120
      3 C          -5.3890   -9.0015   -4.4382 C.ar    1  UNL1        0.0520
      4 C          -5.3225  -10.2684   -4.9860 C.ar    1  UNL1        0.1565
      5 N          -5.4191  -10.6125   -6.2870 N.ar    1  UNL1       -0.2332
      6 C          -5.6121   -9.5376   -7.0905 C.ar    1  UNL1        0.0651
      7 N          -5.1272  -11.1169   -3.9462 N.ar    1  UNL1       -0.2595
      8 N          -5.0469  -10.5035   -2.7463 N.ar    1  UNL1       -0.1683
      9 C          -5.1860   -9.1872   -3.0319 C.ar    1  UNL1        0.1387
     10 C          -5.0604   -8.1376   -2.0033 C.ar    1  UNL1        0.1827
     11 N          -4.9531   -8.5546   -0.7215 N.ar    1  UNL1       -0.2313
     12 C          -4.6364   -7.6187    0.1819 C.ar    1  UNL1        0.0686
     13 C          -4.4101   -6.3136   -0.1611 C.ar    1  UNL1        0.1809
     14 C          -4.5718   -5.9537   -1.4971 C.ar    1  UNL1        0.1585
     15 N          -4.9240   -6.8549   -2.4286 N.ar    1  UNL1       -0.2082
     16 N          -4.3013   -4.6378   -1.8173 N.pl3   1  UNL1       -0.3228
     17 C          -4.7049   -3.8774   -3.0026 C.3     1  UNL1        0.0383
     18 C          -3.4654   -3.1008   -3.5532 C.3     1  UNL1        0.0778
     19 C          -3.8026   -1.5943   -3.5513 C.3     1  UNL1       -0.0233
     20 C          -4.1056   -1.0737   -2.1442 C.3     1  UNL1       -0.0340
     21 C          -5.3336   -1.7573   -1.5897 C.3     1  UNL1       -0.0331
     22 C          -5.8295   -2.8474   -2.5469 C.3     1  UNL1       -0.0187
     23 C          -6.3050   -2.0290   -3.7679 C.3     1  UNL1       -0.0480
     24 C          -5.0707   -1.4082   -4.4480 C.3     1  UNL1       -0.0488
     25 C          -4.0734   -1.7774   -0.7896 C.3     1  UNL1       -0.0463
     26 C          -2.9698   -3.4783   -4.9460 C.2     1  UNL1        0.3099
     27 O          -2.3063   -2.7680   -5.6804 O.2     1  UNL1       -0.2506
     28 O          -3.2798   -4.7269   -5.3557 O.3     1  UNL1       -0.4804
     29 F          -4.0268   -5.4191    0.7635 F       1  UNL1       -0.2003
     30 F          -5.9112   -7.2357   -7.5533 F       1  UNL1       -0.2039
     31 H          -5.6766   -6.8967   -4.9643 H       1  UNL1        0.0654
     32 H          -5.6846   -9.7658   -8.1535 H       1  UNL1        0.0859
     33 H          -5.0252  -12.1224   -3.9870 H       1  UNL1        0.1905
     34 H          -4.5378   -7.9484    1.2092 H       1  UNL1        0.0861
     35 H          -3.3978   -4.3835   -1.4353 H       1  UNL1        0.1479
     36 H          -5.1343   -4.5401   -3.7626 H       1  UNL1        0.0509
     37 H          -2.5875   -3.2657   -2.9150 H       1  UNL1        0.0435
     38 H          -2.9770   -1.0087   -3.9713 H       1  UNL1        0.0312
     39 H          -4.0221    0.0070   -2.0981 H       1  UNL1        0.0306
     40 H          -6.1396   -1.1221   -1.2339 H       1  UNL1        0.0307
     41 H          -6.6709   -3.3746   -2.0827 H       1  UNL1        0.0322
     42 H          -6.8870   -2.6368   -4.4668 H       1  UNL1        0.0269
     43 H          -6.9672   -1.2136   -3.4395 H       1  UNL1        0.0269
     44 H          -5.2461   -0.3476   -4.6548 H       1  UNL1        0.0268
     45 H          -4.9377   -1.8936   -5.4204 H       1  UNL1        0.0268
     46 H          -3.6171   -2.7229   -0.5691 H       1  UNL1        0.0271
     47 H          -4.0693   -1.1536    0.1054 H       1  UNL1        0.0271
     48 H          -2.8488   -4.7960   -6.2372 H       1  UNL1        0.2951
@<TRIPOS>BOND
     1     1     2   ar
     2     1     6   ar
     3     1    30    1
     4     2     3   ar
     5     2    31    1
     6     3     4   ar
     7     3     9   ar
     8     4     5   ar
     9     4     7   ar
    10     5     6   ar
    11     6    32    1
    12     7     8   ar
    13     7    33    1
    14     8     9   ar
    15     9    10    1
    16    10    11   ar
    17    10    15   ar
    18    11    12   ar
    19    12    13   ar
    20    12    34    1
    21    13    14   ar
    22    13    29    1
    23    14    15   ar
    24    14    16    1
    25    16    17    1
    26    16    35    1
    27    17    18    1
    28    17    22    1
    29    17    36    1
    30    18    19    1
    31    19    20    1
    32    19    24    1
    33    19    38    1
    34    20    21    1
    35    20    25    1
    36    20    39    1
    37    21    22    1
    38    21    25    1
    39    21    40    1
    40    22    23    1
    41    22    41    1
    42    23    24    1
    43    23    42    1
    44    23    43    1
    45    24    44    1
    46    24    45    1
    47    25    46    1
    48    25    47    1
    49    26    27    2
    50    26    28    1
    51    28    48    1
    52    18    37    1
    53    18    26    1
