A1JV9
  CCTOOLS-0130261004

 48 53  0  0  1  0  0  0  0  0999 V2000
    5.9070   -0.3140    0.1970 C   0  0  0  0  0
    4.5700   -0.6590    0.1200 C   0  0  0  0  0
    3.6400    0.3610   -0.1050 C   0  0  0  0  0
    4.0900    1.6870   -0.2460 C   0  0  0  0  0
    6.2780    1.0170    0.0490 C   0  0  0  0  0
    1.2630   -0.7600   -0.1720 C   0  0  0  0  0
    0.9740   -3.0290    0.1200 C   0  0  0  0  0
   -0.3920   -2.8670   -0.0230 C   0  0  0  0  0
   -0.8920   -1.5790   -0.2470 C   0  0  0  0  0
   -2.7650   -0.0160   -0.6320 C   0  0  0  0  0
   -2.8680    0.7170    0.7010 C   0  0  0  0  0
   -4.3080    1.1570    0.9790 C   0  0  0  0  0
   -5.2000   -0.1080    0.9920 C   0  0  0  0  0
   -5.0950   -0.8550   -0.3650 C   0  0  0  0  0
   -4.1310   -0.1070   -1.3170 C   0  0  0  0  0
   -4.6740    1.3130   -1.5110 C   0  0  0  0  0
   -4.7770    2.0470   -0.1770 C   0  0  0  0  0
   -4.4750   -1.4520    0.9000 C   0  0  0  0  0
   -1.9780    1.9330    0.6670 C   0  0  0  0  0
    2.1810    0.3990   -0.2460 C   0  0  0  0  0
   -1.2250   -3.9280    0.0510 F   0  0  0  0  0
    6.8430   -1.2620    0.4190 F   0  0  0  0  0
    1.7640   -1.9690    0.0410 N   0  0  0  0  0
   -0.0420   -0.5620   -0.3150 N   0  0  0  0  0
   -2.2540   -1.3690   -0.3980 N   0  0  0  0  0
    5.3860    1.9600   -0.1630 N   0  0  0  0  0
    2.9780    2.4600   -0.4550 N   0  0  0  0  0
    1.8390    1.6490   -0.4500 N   0  0  0  0  0
   -2.4530    3.0340    0.8160 O   0  0  0  0  0
   -0.6580    1.7930    0.4700 O   0  0  0  0  0
    4.2530   -1.6850    0.2320 H   0  0  0  0  0
    7.3230    1.2830    0.1090 H   0  0  0  0  0
    1.3920   -4.0100    0.2940 H   0  0  0  0  0
   -2.0730    0.5190   -1.2820 H   0  0  0  0  0
   -2.5360    0.0550    1.5010 H   0  0  0  0  0
   -4.3730    1.6830    1.9310 H   0  0  0  0  0
   -6.1570   -0.0360    1.5090 H   0  0  0  0  0
   -5.9780   -1.3130   -0.8110 H   0  0  0  0  0
   -4.0490   -0.6300   -2.2700 H   0  0  0  0  0
   -4.0050    1.8640   -2.1720 H   0  0  0  0  0
   -5.6620    1.2590   -1.9670 H   0  0  0  0  0
   -5.8130    2.3380   -0.0080 H   0  0  0  0  0
   -4.1560    2.9430   -0.2130 H   0  0  0  0  0
   -3.3880   -1.4430    0.9780 H   0  0  0  0  0
   -4.9690   -2.3190    1.3390 H   0  0  0  0  0
   -2.8690   -2.1180   -0.3480 H   0  0  0  0  0
    2.9800    3.4210   -0.5870 H   0  0  0  0  0
   -0.1270    2.6010    0.4550 H   0  0  0  0  0
  1  2  2  0  0  0
  1  5  1  0  0  0
  1 22  1  0  0  0
  2  3  1  0  0  0
  2 31  1  0  0  0
  3  4  2  0  0  0
  3 20  1  0  0  0
  4 26  1  0  0  0
  4 27  1  0  0  0
  5 32  1  0  0  0
  6 23  2  0  0  0
  6 24  1  0  0  0
  7  8  2  0  0  0
  7 33  1  0  0  0
  8  9  1  0  0  0
  8 21  1  0  0  0
  9 24  2  0  0  0
  9 25  1  0  0  0
 10 11  1  0  0  0
 10 15  1  0  0  0
 10 34  1  0  0  0
 11 12  1  0  0  0
 11 19  1  0  0  0
 11 35  1  0  0  0
 12 13  1  0  0  0
 12 17  1  0  0  0
 12 36  1  0  0  0
 13 14  1  0  0  0
 13 18  1  0  0  0
 13 37  1  0  0  0
 14 15  1  0  0  0
 14 18  1  0  0  0
 14 38  1  0  0  0
 15 16  1  0  0  0
 15 39  1  0  0  0
 16 17  1  0  0  0
 16 40  1  0  0  0
 16 41  1  0  0  0
 17 42  1  0  0  0
 17 43  1  0  0  0
 18 44  1  0  0  0
 18 45  1  0  0  0
 19 29  2  0  0  0
 19 30  1  0  0  0
 20  6  1  0  0  0
 23  7  1  0  0  0
 25 10  1  0  0  0
 25 46  1  0  0  0
 26  5  2  0  0  0
 27 28  1  0  0  0
 27 47  1  0  0  0
 28 20  2  0  0  0
 30 48  1  0  0  0
M  END
$$$$
