@<TRIPOS>MOLECULE
resultados/dock6_library_self_rmsd/prepared_site/ligand_ref.pdb
 30 35 0 0 0
SMALL
GASTEIGER

@<TRIPOS>ATOM
      1   C1      -37.2960    1.9380   -5.6500 C.ar  501  A1J501      0.1594
      2   C2      -37.7070    0.7370   -4.9920 C.ar  501  A1J501      0.0360
      3   C3      -37.1480    0.6390   -3.6820 C.ar  501  A1J501      0.0622
      4   C4      -36.3090    1.6140   -3.1790 C.ar  501  A1J501      0.1854
      5   C6      -36.4660    2.8890   -5.0610 C.ar  501  A1J501      0.1302
      6  C10      -37.8570   -1.6050   -2.6110 C.ar  501  A1J501      0.1835
      7  C12      -38.4190   -3.4870   -1.5630 C.ar  501  A1J501      0.1331
      8  C13      -39.1170   -3.9460   -2.6720 C.ar  501  A1J501      0.1920
      9  C14      -39.1560   -3.0910   -3.8150 C.ar  501  A1J501      0.1784
     10  C17      -39.8660   -2.6890   -6.1450 C.3   501  A1J501      0.1047
     11  C18      -41.0600   -2.9600   -7.0280 C.3   501  A1J501      0.1232
     12  C19      -40.7110   -3.2700   -8.5310 C.3   501  A1J501      0.0124
     13  C20      -39.6620   -4.4400   -8.7780 C.3   501  A1J501      0.0006
     14  C21      -38.4370   -4.2100   -7.8600 C.3   501  A1J501      0.0017
     15  C22      -38.5870   -2.9000   -7.0750 C.3   501  A1J501      0.0205
     16  C23      -38.7660   -1.7140   -8.0490 C.3   501  A1J501      0.0017
     17  C24      -39.9790   -2.0300   -9.0460 C.3   501  A1J501      0.0007
     18  C25      -39.3090   -5.4270   -7.6310 C.3   501  A1J501      0.0001
     19  C28      -42.1940   -1.9680   -6.9860 C.2   501  A1J501      0.3660
     20   C9      -37.1810   -0.3960   -2.5920 C.ar  501  A1J501      0.1416
     21  F31      -39.7620   -5.1030   -2.7630 F     501  A1J501     -0.1995
     22  F32      -37.7800    2.1600   -6.8770 F     501  A1J501     -0.2025
     23  N11      -37.8120   -2.3450   -1.4800 N.ar  501  A1J501     -0.2212
     24  N15      -38.5060   -1.9760   -3.7290 N.ar  501  A1J501     -0.2065
     25  N16      -39.8080   -3.5840   -4.9200 N.pl3 501  A1J501     -0.2196
     26   N5      -35.9610    2.7310   -3.8630 N.ar  501  A1J501     -0.2212
     27   N7      -35.9270    1.2400   -1.9220 N.ar  501  A1J501     -0.1283
     28   N8      -36.4700    0.0350   -1.5890 N.ar  501  A1J501     -0.1433
     29  O29      -42.0640   -0.8900   -6.4360 O.co2 501  A1J501     -0.2456
     30  O30      -43.2530   -2.3250   -7.6230 O.co2 501  A1J501     -0.2456
@<TRIPOS>BOND
     1    17    12    1
     2    17    16    1
     3    13    12    1
     4    13    14    1
     5    13    18    1
     6    12    11    1
     7    16    15    1
     8    14    18    1
     9    14    15    1
    10    30    19   ar
    11    15    10    1
    12    11    19    1
    13    11    10    1
    14    19    29   ar
    15    22     1    1
    16    10    25    1
    17     1     5   ar
    18     1     2   ar
    19     5    26   ar
    20     2     3   ar
    21    25     9    1
    22    26     4   ar
    23     9    24   ar
    24     9     8   ar
    25    24     6   ar
    26     3     4   ar
    27     3    20   ar
    28     4    27   ar
    29    21     8    1
    30     8     7   ar
    31     6    20    1
    32     6    23   ar
    33    20    28   ar
    34    27    28   ar
    35     7    23   ar
