@<TRIPOS>MOLECULE
resultados/dock6_library_self_rmsd/prepared_site/ligand_dock.pdb
 47 52 0 0 0
SMALL
GASTEIGER

@<TRIPOS>ATOM
      1 C          -3.5107   -1.6139    2.2595 C.ar    1  UNL1        0.1422
      2 C          -2.4352   -1.1989    1.5014 C.ar    1  UNL1       -0.0120
      3 C          -1.5213   -2.1969    1.0872 C.ar    1  UNL1        0.0520
      4 C          -1.7460   -3.4855    1.5339 C.ar    1  UNL1        0.1565
      5 C          -3.6488   -2.9470    2.5876 C.ar    1  UNL1        0.0651
      6 C           0.1855   -1.2237   -0.5989 C.ar    1  UNL1        0.1827
      7 C           1.5164   -0.5197   -2.3154 C.ar    1  UNL1        0.0686
      8 C           0.8286    0.6634   -2.4125 C.ar    1  UNL1        0.1809
      9 C          -0.2235    0.8342   -1.5347 C.ar    1  UNL1        0.1585
     10 C          -1.7439    2.3604   -0.4644 C.3     1  UNL1        0.0333
     11 C          -2.8718    3.3833   -0.7848 C.3     1  UNL1        0.0203
     12 C          -2.6644    4.6190    0.1244 C.3     1  UNL1       -0.0283
     13 C          -1.3242    5.2999   -0.2151 C.3     1  UNL1       -0.0341
     14 C          -0.1594    4.3354   -0.1297 C.3     1  UNL1       -0.0331
     15 C          -0.6500    3.0162    0.4411 C.3     1  UNL1       -0.0189
     16 C          -1.2584    3.3922    1.8167 C.3     1  UNL1       -0.0480
     17 C          -2.5871    4.1331    1.5958 C.3     1  UNL1       -0.0490
     18 C          -0.4985    4.9955   -1.4432 C.3     1  UNL1       -0.0463
     19 C          -4.2403    2.7379   -0.6389 C.2     1  UNL1        0.0469
     20 C          -0.3589   -2.2914    0.2538 C.ar    1  UNL1        0.1387
     21 F           1.1581    1.5878   -3.3221 F       1  UNL1       -0.2003
     22 F          -4.4132   -0.7113    2.6711 F       1  UNL1       -0.2039
     23 N           1.2112   -1.4883   -1.4290 N.ar    1  UNL1       -0.2313
     24 N          -0.5280   -0.0852   -0.6108 N.ar    1  UNL1       -0.2082
     25 N          -1.1507    1.8788   -1.7284 N.pl3   1  UNL1       -0.3229
     26 N          -2.7721   -3.9405    2.2706 N.ar    1  UNL1       -0.2332
     27 N          -0.6913   -4.2235    1.0721 N.ar    1  UNL1       -0.2595
     28 N           0.1492   -3.5463    0.2735 N.ar    1  UNL1       -0.1683
     29 O          -5.2670    3.5573   -0.9633 O.co2   1  UNL1       -0.5495
     30 O          -4.4408    1.5697   -0.3360 O.co2   1  UNL1       -0.5495
     31 H          -2.3034   -0.2071    1.2482 H       1  UNL1        0.0654
     32 H          -4.4908   -3.2153    3.1205 H       1  UNL1        0.0859
     33 H           2.3103   -0.6767   -2.9558 H       1  UNL1        0.0861
     34 H          -2.1594    1.5311    0.0691 H       1  UNL1        0.0507
     35 H          -2.8243    3.7083   -1.8031 H       1  UNL1        0.0381
     36 H          -3.4713    5.3067   -0.0202 H       1  UNL1        0.0310
     37 H          -1.6515    6.2395    0.1783 H       1  UNL1        0.0306
     38 H           0.8174    4.1828    0.2794 H       1  UNL1        0.0307
     39 H           0.1436    2.3019    0.5107 H       1  UNL1        0.0322
     40 H          -0.5791    4.0260    2.3474 H       1  UNL1        0.0269
     41 H          -1.4324    2.5042    2.3878 H       1  UNL1        0.0269
     42 H          -3.4033    3.4711    1.7970 H       1  UNL1        0.0268
     43 H          -2.6424    4.9744    2.2546 H       1  UNL1        0.0268
     44 H           0.1510    5.7426   -1.8492 H       1  UNL1        0.0271
     45 H          -0.7145    4.6453   -2.4309 H       1  UNL1        0.0271
     46 H          -1.3785    2.2478   -2.6123 H       1  UNL1        0.1478
     47 H          -0.5596   -5.1709    1.3055 H       1  UNL1        0.1905
@<TRIPOS>UNITY_ATOM_ATTR
29 1
charge -1
@<TRIPOS>BOND
     1     1    22    1
     2     1     5   ar
     3     1     2   ar
     4     2     3   ar
     5     3     4   ar
     6     3    20   ar
     7     4    26   ar
     8     4    27   ar
     9     5    26   ar
    10     6    24   ar
    11     6    20    1
    12     6    23   ar
    13     7     8   ar
    14     7    23   ar
    15     8     9   ar
    16     8    21    1
    17     9    25    1
    18     9    24   ar
    19    10    15    1
    20    10    11    1
    21    10    25    1
    22    11    12    1
    23    11    19    1
    24    12    17    1
    25    12    13    1
    26    13    14    1
    27    13    18    1
    28    14    18    1
    29    14    15    1
    30    15    16    1
    31    16    17    1
    32    19    30   ar
    33    19    29   ar
    34    20    28   ar
    35    27    28   ar
    36     2    31    1
    37     5    32    1
    38     7    33    1
    39    10    34    1
    40    11    35    1
    41    12    36    1
    42    13    37    1
    43    14    38    1
    44    15    39    1
    45    16    40    1
    46    16    41    1
    47    17    42    1
    48    17    43    1
    49    18    44    1
    50    18    45    1
    51    25    46    1
    52    27    47    1
