
##########                                Name:resultados/dock6_library_self_rmsd/prepared_site/ligand_dock.pdb
##########                DOCK_Rotatable_Bonds:                   4
##########                         Heavy_Atoms:                  30
##########                    Molecular_Weight:             411.391
##########                DOCK_Rotatable_Bonds:                   4
##########                       Formal_Charge:                  -1
##########                     HBond_Acceptors:                  10
##########                        HBond_Donors:                   2
##########                         Heavy_Atoms:                  30
##########                        Cluster_Size:                   5
##########                          Grid_Score:          -58.690216
##########                     Grid_vdw_energy:          -45.370483
##########                      Grid_es_energy:          -13.319735
##########           Internal_energy_repulsive:           16.971571

@<TRIPOS>MOLECULE
resultados/dock6_library_self_rmsd/prepared_site/ligand_dock.pdb
 47 52 1 0 0
SMALL
GASTEIGER


@<TRIPOS>ATOM
      1 C         -37.4111    1.8839   -5.7555 C.ar    1  UNL1        0.1422
      2 C         -37.6440    0.6456   -5.1935 C.ar    1  UNL1       -0.0120
      3 C         -37.1356    0.4284   -3.8908 C.ar    1  UNL1        0.0520
      4 C         -36.3929    1.4467   -3.3233 C.ar    1  UNL1        0.1565
      5 C         -36.7019    2.8368   -5.0534 C.ar    1  UNL1        0.0651
      6 C         -38.0058   -1.8159   -2.9374 C.ar    1  UNL1        0.1827
      7 C         -39.1265   -3.5136   -1.9005 C.ar    1  UNL1        0.0686
      8 C         -39.8505   -3.7784   -3.0354 C.ar    1  UNL1        0.1809
      9 C         -39.5913   -2.9757   -4.1286 C.ar    1  UNL1        0.1585
     10 C         -39.9091   -2.2540   -6.4012 C.3     1  UNL1        0.0333
     11 C         -41.0339   -2.0499   -7.4568 C.3     1  UNL1        0.0203
     12 C         -40.4661   -2.4523   -8.8396 C.3     1  UNL1       -0.0283
     13 C         -40.1075   -3.9511   -8.8424 C.3     1  UNL1       -0.0341
     14 C         -39.1590   -4.3103   -7.7174 C.3     1  UNL1       -0.0331
     15 C         -38.7069   -3.0361   -7.0254 C.3     1  UNL1       -0.0189
     16 C         -38.0563   -2.1935   -8.1526 C.3     1  UNL1       -0.0480
     17 C         -39.1576   -1.6538   -9.0795 C.3     1  UNL1       -0.0490
     18 C         -40.5320   -4.9329   -7.7754 C.3     1  UNL1       -0.0463
     19 C         -41.5690   -0.6281   -7.4042 C.2     1  UNL1        0.0469
     20 C         -37.1867   -0.5952   -2.8887 C.ar    1  UNL1        0.1387
     21 F         -40.7663   -4.7536   -3.0655 F       1  UNL1       -0.2003
     22 F         -37.8789    2.1474   -6.9845 F       1  UNL1       -0.2039
     23 N         -38.2074   -2.5313   -1.8155 N.ar    1  UNL1       -0.2313
     24 N         -38.6543   -2.0204   -4.0963 N.ar    1  UNL1       -0.2082
     25 N         -40.4576   -2.9854   -5.2412 N.pl3   1  UNL1       -0.3229
     26 N         -36.1372    2.6654   -3.8255 N.ar    1  UNL1       -0.2332
     27 N         -35.9547    0.9573   -2.1239 N.ar    1  UNL1       -0.2595
     28 N         -36.4355   -0.2574   -1.8139 N.ar    1  UNL1       -0.1683
     29 O         -42.8658   -0.5195   -7.7747 O.co2   1  UNL1       -0.5495
     30 O         -40.9484    0.3448   -6.9982 O.co2   1  UNL1       -0.5495
     31 H         -38.1647   -0.0880   -5.6994 H       1  UNL1        0.0654
     32 H         -36.5890    3.7612   -5.4979 H       1  UNL1        0.0859
     33 H         -39.2950   -4.0980   -1.0667 H       1  UNL1        0.0861
     34 H         -39.5491   -1.2994   -6.0786 H       1  UNL1        0.0507
     35 H         -41.8787   -2.6732   -7.2503 H       1  UNL1        0.0381
     36 H         -41.1946   -2.2488   -9.5964 H       1  UNL1        0.0310
     37 H         -40.1902   -4.0140   -9.9073 H       1  UNL1        0.0306
     38 H         -38.2401   -4.8023   -7.4760 H       1  UNL1        0.0307
     39 H         -38.0393   -3.2473   -6.2163 H       1  UNL1        0.0322
     40 H         -37.3837   -2.8067   -8.7152 H       1  UNL1        0.0269
     41 H         -37.5147   -1.3764   -7.7239 H       1  UNL1        0.0269
     42 H         -39.3268   -0.6186   -8.8685 H       1  UNL1        0.0268
     43 H         -38.8531   -1.7626  -10.0994 H       1  UNL1        0.0268
     44 H         -40.6387   -5.9701   -8.0155 H       1  UNL1        0.0271
     45 H         -41.3584   -5.0034   -7.0995 H       1  UNL1        0.0271
     46 H         -41.3350   -3.4322   -5.2443 H       1  UNL1        0.1478
     47 H         -35.3389    1.4536   -1.5375 H       1  UNL1        0.1905
@<TRIPOS>BOND
     1     1    22    1
     2     1     5   ar
     3     1     2   ar
     4     2     3   ar
     5     3     4   ar
     6     3    20   ar
     7     4    26   ar
     8     4    27   ar
     9     5    26   ar
    10     6    24   ar
    11     6    20    1
    12     6    23   ar
    13     7     8   ar
    14     7    23   ar
    15     8     9   ar
    16     8    21    1
    17     9    25    1
    18     9    24   ar
    19    10    15    1
    20    10    11    1
    21    10    25    1
    22    11    12    1
    23    11    19    1
    24    12    17    1
    25    12    13    1
    26    13    14    1
    27    13    18    1
    28    14    18    1
    29    14    15    1
    30    15    16    1
    31    16    17    1
    32    19    30   ar
    33    19    29   ar
    34    20    28   ar
    35    27    28   ar
    36     2    31    1
    37     5    32    1
    38     7    33    1
    39    10    34    1
    40    11    35    1
    41    12    36    1
    42    13    37    1
    43    14    38    1
    44    15    39    1
    45    16    40    1
    46    16    41    1
    47    17    42    1
    48    17    43    1
    49    18    44    1
    50    18    45    1
    51    25    46    1
    52    27    47    1
@<TRIPOS>SUBSTRUCTURE
     1 UNL1        1 TEMP              0 ****  ****    0 ROOT

