
##########                                Name:     ligand_dock.pdb
##########                DOCK_Rotatable_Bonds:                   4
##########                         Heavy_Atoms:                  30
##########                    Molecular_Weight:             411.391
##########                DOCK_Rotatable_Bonds:                   4
##########                       Formal_Charge:                  -1
##########                     HBond_Acceptors:                  10
##########                        HBond_Donors:                   2
##########                         Heavy_Atoms:                  30
##########                        Cluster_Size:                   5
##########                          Grid_Score:          -57.999821
##########                     Grid_vdw_energy:          -44.501911
##########                      Grid_es_energy:          -13.497909
##########           Internal_energy_repulsive:           12.165823

@<TRIPOS>MOLECULE
ligand_dock.pdb
 47 52 1 0 0
SMALL
GASTEIGER


@<TRIPOS>ATOM
      1 C         -38.0773    1.6379   -5.8436 C.ar    1  UNL1        0.1422
      2 C         -38.2136    0.4120   -5.2088 C.ar    1  UNL1       -0.0120
      3 C         -37.4676    0.2097   -4.0389 C.ar    1  UNL1        0.0520
      4 C         -36.6258    1.2340   -3.6271 C.ar    1  UNL1        0.1565
      5 N         -36.4509    2.4352   -4.2050 N.ar    1  UNL1       -0.2332
      6 C         -37.2102    2.5867   -5.3223 C.ar    1  UNL1        0.0651
      7 N         -36.0122    0.7791   -2.4996 N.ar    1  UNL1       -0.2595
      8 N         -36.3868   -0.4573   -2.1350 N.ar    1  UNL1       -0.1683
      9 C         -37.3003   -0.8214   -3.0606 C.ar    1  UNL1        0.1387
     10 C         -38.0442   -2.0907   -3.0003 C.ar    1  UNL1        0.1827
     11 N         -38.1940   -2.6679   -1.7967 N.ar    1  UNL1       -0.2313
     12 C         -39.0529   -3.6944   -1.7316 C.ar    1  UNL1        0.0686
     13 C         -39.7595   -4.1234   -2.8201 C.ar    1  UNL1        0.1809
     14 C         -39.5392   -3.4911   -4.0441 C.ar    1  UNL1        0.1585
     15 N         -38.6620   -2.4865   -4.1545 N.ar    1  UNL1       -0.2082
     16 N         -40.3477   -3.8237   -5.1164 N.pl3   1  UNL1       -0.3229
     17 C         -40.4057   -3.1649   -6.4306 C.3     1  UNL1        0.0333
     18 C         -41.7354   -3.6816   -7.0882 C.3     1  UNL1        0.0203
     19 C         -41.3672   -4.2557   -8.4647 C.3     1  UNL1       -0.0283
     20 C         -40.3591   -5.4066   -8.3789 C.3     1  UNL1       -0.0341
     21 C         -39.0399   -4.9080   -7.8436 C.3     1  UNL1       -0.0331
     22 C         -39.1589   -3.4604   -7.3827 C.3     1  UNL1       -0.0189
     23 C         -39.3551   -2.7188   -8.7282 C.3     1  UNL1       -0.0480
     24 C         -40.7532   -3.0619   -9.2679 C.3     1  UNL1       -0.0490
     25 C         -39.6624   -6.0895   -7.1967 C.3     1  UNL1       -0.0463
     26 C         -42.9203   -2.7256   -7.3011 C.2     1  UNL1        0.0469
     27 O         -42.7648   -1.5281   -7.5309 O.co2   1  UNL1       -0.5495
     28 O         -44.1542   -3.2405   -7.2600 O.co2   1  UNL1       -0.5495
     29 F         -40.6609   -5.1092   -2.6929 F       1  UNL1       -0.2003
     30 F         -38.7679    1.8912   -6.9635 F       1  UNL1       -0.2039
     31 H         -38.8378   -0.3203   -5.5820 H       1  UNL1        0.0654
     32 H         -37.1350    3.4844   -5.8258 H       1  UNL1        0.0859
     33 H         -35.3525    1.3096   -1.9969 H       1  UNL1        0.1905
     34 H         -39.1851   -4.1774   -0.8292 H       1  UNL1        0.0861
     35 H         -40.9533   -4.5886   -4.9851 H       1  UNL1        0.1478
     36 H         -40.3770   -2.1037   -6.2962 H       1  UNL1        0.0507
     37 H         -42.1099   -4.3668   -6.3569 H       1  UNL1        0.0381
     38 H         -42.2353   -4.6689   -8.9345 H       1  UNL1        0.0310
     39 H         -40.8669   -5.8877   -9.1886 H       1  UNL1        0.0306
     40 H         -38.0172   -4.7762   -8.1295 H       1  UNL1        0.0307
     41 H         -38.3127   -3.1687   -6.7964 H       1  UNL1        0.0322
     42 H         -38.6095   -3.0345   -9.4277 H       1  UNL1        0.0269
     43 H         -39.2642   -1.6624   -8.5841 H       1  UNL1        0.0269
     44 H         -41.3890   -2.2069   -9.1704 H       1  UNL1        0.0268
     45 H         -40.6700   -3.3414  -10.2974 H       1  UNL1        0.0268
     46 H         -39.2262   -7.0587   -7.3200 H       1  UNL1        0.0271
     47 H         -39.9442   -6.3436   -6.1963 H       1  UNL1        0.0271
@<TRIPOS>BOND
     1     1     2   ar
     2     1     6   ar
     3     1    30    1
     4     2     3   ar
     5     3     4   ar
     6     3     9   ar
     7     4     5   ar
     8     4     7   ar
     9     5     6   ar
    10     7     8   ar
    11     8     9   ar
    12     9    10    1
    13    10    11   ar
    14    10    15   ar
    15    11    12   ar
    16    12    13   ar
    17    13    14   ar
    18    13    29    1
    19    14    15   ar
    20    14    16    1
    21    16    17    1
    22    17    18    1
    23    17    22    1
    24    18    19    1
    25    19    20    1
    26    19    24    1
    27    20    21    1
    28    20    25    1
    29    21    22    1
    30    21    25    1
    31    22    23    1
    32    23    24    1
    33    26    27   ar
    34    26    28   ar
    35    18    26    1
    36     2    31    1
    37     6    32    1
    38     7    33    1
    39    12    34    1
    40    16    35    1
    41    17    36    1
    42    18    37    1
    43    19    38    1
    44    20    39    1
    45    21    40    1
    46    22    41    1
    47    23    42    1
    48    23    43    1
    49    24    44    1
    50    24    45    1
    51    25    46    1
    52    25    47    1
@<TRIPOS>SUBSTRUCTURE
     1 UNL1        1 TEMP              0 ****  ****    0 ROOT

