@<TRIPOS>MOLECULE
ligand_ref.pdb
 30 35 0 0 0
SMALL
GASTEIGER

@<TRIPOS>ATOM
      1  C1       -37.2960    1.9380   -5.6500 C.ar  501  A1J501      0.1594
      2  C2       -37.7070    0.7370   -4.9920 C.ar  501  A1J501      0.0360
      3  C3       -37.1480    0.6390   -3.6820 C.ar  501  A1J501      0.0622
      4  C4       -36.3090    1.6140   -3.1790 C.ar  501  A1J501      0.1854
      5  N5       -35.9610    2.7310   -3.8630 N.ar  501  A1J501     -0.2212
      6  C6       -36.4660    2.8890   -5.0610 C.ar  501  A1J501      0.1302
      7  N7       -35.9270    1.2400   -1.9220 N.ar  501  A1J501     -0.1283
      8  N8       -36.4700    0.0350   -1.5890 N.ar  501  A1J501     -0.1433
      9  C9       -37.1810   -0.3960   -2.5920 C.ar  501  A1J501      0.1416
     10  C10      -37.8570   -1.6050   -2.6110 C.ar  501  A1J501      0.1835
     11  N11      -37.8120   -2.3450   -1.4800 N.ar  501  A1J501     -0.2212
     12  C12      -38.4190   -3.4870   -1.5630 C.ar  501  A1J501      0.1331
     13  C13      -39.1170   -3.9460   -2.6720 C.ar  501  A1J501      0.1920
     14  C14      -39.1560   -3.0910   -3.8150 C.ar  501  A1J501      0.1784
     15  N15      -38.5060   -1.9760   -3.7290 N.ar  501  A1J501     -0.2065
     16  N16      -39.8080   -3.5840   -4.9200 N.pl3 501  A1J501     -0.2196
     17  C17      -39.8660   -2.6890   -6.1450 C.3   501  A1J501      0.1047
     18  C18      -41.0600   -2.9600   -7.0280 C.3   501  A1J501      0.1232
     19  C19      -40.7110   -3.2700   -8.5310 C.3   501  A1J501      0.0124
     20  C20      -39.6620   -4.4400   -8.7780 C.3   501  A1J501      0.0006
     21  C21      -38.4370   -4.2100   -7.8600 C.3   501  A1J501      0.0017
     22  C22      -38.5870   -2.9000   -7.0750 C.3   501  A1J501      0.0205
     23  C23      -38.7660   -1.7140   -8.0490 C.3   501  A1J501      0.0017
     24  C24      -39.9790   -2.0300   -9.0460 C.3   501  A1J501      0.0007
     25  C25      -39.3090   -5.4270   -7.6310 C.3   501  A1J501      0.0001
     26  C28      -42.1940   -1.9680   -6.9860 C.2   501  A1J501      0.3660
     27  O29      -42.0640   -0.8900   -6.4360 O.co2 501  A1J501     -0.2456
     28  O30      -43.2530   -2.3250   -7.6230 O.co2 501  A1J501     -0.2456
     29  F31      -39.7620   -5.1030   -2.7630 F     501  A1J501     -0.1995
     30  F32      -37.7800    2.1600   -6.8770 F     501  A1J501     -0.2025
@<TRIPOS>BOND
     1     1     2   ar
     2     1     6   ar
     3     1    30    1
     4     2     3   ar
     5     3     4   ar
     6     3     9   ar
     7     4     5   ar
     8     4     7   ar
     9     5     6   ar
    10     7     8   ar
    11     8     9   ar
    12     9    10    1
    13    10    11   ar
    14    10    15   ar
    15    11    12   ar
    16    12    13   ar
    17    13    14   ar
    18    13    29    1
    19    14    15   ar
    20    14    16    1
    21    16    17    1
    22    17    18    1
    23    17    22    1
    24    18    19    1
    25    18    26    1
    26    19    20    1
    27    19    24    1
    28    20    21    1
    29    20    25    1
    30    21    22    1
    31    21    25    1
    32    22    23    1
    33    23    24    1
    34    26    27   ar
    35    26    28   ar
