@<TRIPOS>MOLECULE
resultados/dock6_redocking/prepared_inputs/ligand_dock.pdb
 47 52 0 0 0
SMALL
GASTEIGER

@<TRIPOS>ATOM
      1 C           2.4503    1.2681   -3.1752 C.ar    1  UNL1        0.1422
      2 C           2.0438    1.2675   -1.8483 C.ar    1  UNL1       -0.0120
      3 C           2.4713    0.1886   -1.0532 C.ar    1  UNL1        0.0520
      4 C           3.2930   -0.7560   -1.6419 C.ar    1  UNL1        0.1565
      5 C           3.2571    0.2462   -3.6520 C.ar    1  UNL1        0.0651
      6 C           1.6408    0.5194    1.3686 C.ar    1  UNL1        0.1827
      7 C           1.9004    1.7225    3.2924 C.ar    1  UNL1        0.0686
      8 C           0.7553    2.4191    3.0284 C.ar    1  UNL1        0.1809
      9 C           0.0011    2.0550    1.9090 C.ar    1  UNL1        0.1585
     10 C          -2.1650    2.5547    0.6224 C.3     1  UNL1        0.0333
     11 C          -1.6544    2.8867   -0.7560 C.3     1  UNL1        0.0203
     12 C          -1.8992    4.4495   -0.9700 C.3     1  UNL1       -0.0283
     13 C          -2.1705    5.4565    0.2587 C.3     1  UNL1       -0.0341
     14 C          -3.1722    4.8528    1.2412 C.3     1  UNL1       -0.0331
     15 C          -3.4880    3.4612    0.7542 C.3     1  UNL1       -0.0189
     16 C          -4.2310    3.8229   -0.6658 C.3     1  UNL1       -0.0480
     17 C          -3.2566    4.5154   -1.6690 C.3     1  UNL1       -0.0490
     18 C          -1.9243    5.4944    1.7596 C.3     1  UNL1       -0.0463
     19 C          -2.3853    1.8295   -1.6411 C.2     1  UNL1        0.0469
     20 C           2.3414   -0.2235    0.3108 C.ar    1  UNL1        0.1387
     21 F           0.4026    3.4537    3.7967 F       1  UNL1       -0.2003
     22 F           2.0693    2.2671   -3.9832 F       1  UNL1       -0.2039
     23 N           2.3732    0.7645    2.4757 N.ar    1  UNL1       -0.2313
     24 N           0.4587    1.1191    1.0355 N.ar    1  UNL1       -0.2082
     25 N          -1.0906    2.8624    1.5910 N.pl3   1  UNL1       -0.3229
     26 N           3.7163   -0.7986   -2.9186 N.ar    1  UNL1       -0.2332
     27 N           3.6241   -1.6297   -0.6482 N.ar    1  UNL1       -0.2595
     28 N           3.0543   -1.3470    0.5445 N.ar    1  UNL1       -0.1683
     29 O          -2.0938    1.8666   -2.9347 O.co2   1  UNL1       -0.5495
     30 O          -3.2131    0.9886   -1.2743 O.co2   1  UNL1       -0.5495
     31 H           1.4556    2.0230   -1.4631 H       1  UNL1        0.0654
     32 H           3.5308    0.2835   -4.6463 H       1  UNL1        0.0859
     33 H           2.4244    1.9405    4.1543 H       1  UNL1        0.0861
     34 H          -2.4160    1.5309    0.8060 H       1  UNL1        0.0507
     35 H          -0.6134    2.7985   -0.9872 H       1  UNL1        0.0381
     36 H          -0.9799    4.7660   -1.4169 H       1  UNL1        0.0310
     37 H          -1.9142    6.2396   -0.4239 H       1  UNL1        0.0306
     38 H          -4.1331    4.9270    1.7061 H       1  UNL1        0.0307
     39 H          -4.0901    2.8588    1.4019 H       1  UNL1        0.0322
     40 H          -5.0516    4.4809   -0.4697 H       1  UNL1        0.0269
     41 H          -4.5686    2.9085   -1.1072 H       1  UNL1        0.0269
     42 H          -3.2311    3.9884   -2.5999 H       1  UNL1        0.0268
     43 H          -3.5507    5.5169   -1.9043 H       1  UNL1        0.0268
     44 H          -1.9824    6.4244    2.2857 H       1  UNL1        0.0271
     45 H          -1.1264    5.1789    2.3989 H       1  UNL1        0.0271
     46 H          -1.1525    3.7260    2.0595 H       1  UNL1        0.1478
     47 H           4.2244   -2.3975   -0.7873 H       1  UNL1        0.1905
@<TRIPOS>UNITY_ATOM_ATTR
29 1
charge -1
@<TRIPOS>BOND
     1     1    22    1
     2     1     5   ar
     3     1     2   ar
     4     2     3   ar
     5     3     4   ar
     6     3    20   ar
     7     4    26   ar
     8     4    27   ar
     9     5    26   ar
    10     6    24   ar
    11     6    20    1
    12     6    23   ar
    13     7     8   ar
    14     7    23   ar
    15     8     9   ar
    16     8    21    1
    17     9    25    1
    18     9    24   ar
    19    10    15    1
    20    10    11    1
    21    10    25    1
    22    11    12    1
    23    12    17    1
    24    12    13    1
    25    13    14    1
    26    13    18    1
    27    14    18    1
    28    14    15    1
    29    15    16    1
    30    16    17    1
    31    19    30   ar
    32    19    29   ar
    33    20    28   ar
    34    27    28   ar
    35    11    19    1
    36     2    31    1
    37     5    32    1
    38     7    33    1
    39    10    34    1
    40    11    35    1
    41    12    36    1
    42    13    37    1
    43    14    38    1
    44    15    39    1
    45    16    40    1
    46    16    41    1
    47    17    42    1
    48    17    43    1
    49    18    44    1
    50    18    45    1
    51    25    46    1
    52    27    47    1
