
##########                                Name:resultados/dock6_redocking/prepared_inputs/ligand_dock.pdb
##########                DOCK_Rotatable_Bonds:                   4
##########                         Heavy_Atoms:                  30
##########                    Molecular_Weight:             411.391
##########                DOCK_Rotatable_Bonds:                   4
##########                       Formal_Charge:                  -1
##########                     HBond_Acceptors:                  10
##########                        HBond_Donors:                   2
##########                         Heavy_Atoms:                  30
##########                        Cluster_Size:                   3
##########                          Grid_Score:          -53.600697
##########                     Grid_vdw_energy:          -47.726208
##########                      Grid_es_energy:           -5.874490
##########           Internal_energy_repulsive:           33.389385

@<TRIPOS>MOLECULE
resultados/dock6_redocking/prepared_inputs/ligand_dock.pdb
 47 52 1 0 0
SMALL
GASTEIGER


@<TRIPOS>ATOM
      1 C         -37.8550    1.8242   -5.7643 C.ar    1  UNL1        0.1422
      2 C         -38.0363    0.6022   -5.1321 C.ar    1  UNL1       -0.0120
      3 C         -37.2868    0.3738   -3.9637 C.ar    1  UNL1        0.0520
      4 C         -36.4676    1.3954   -3.5173 C.ar    1  UNL1        0.1565
      5 C         -36.9827    2.7584   -5.2269 C.ar    1  UNL1        0.0651
      6 C         -37.9104   -1.9279   -2.9749 C.ar    1  UNL1        0.1827
      7 C         -39.4465   -3.1697   -1.8286 C.ar    1  UNL1        0.0686
      8 C         -39.8491   -3.7688   -2.9884 C.ar    1  UNL1        0.1809
      9 C         -39.1608   -3.4628   -4.1661 C.ar    1  UNL1        0.1585
     10 C         -39.1048   -3.8221   -6.7087 C.3     1  UNL1        0.0333
     11 C         -39.8738   -2.7270   -7.4017 C.3     1  UNL1        0.0203
     12 C         -41.1781   -3.4066   -8.0222 C.3     1  UNL1       -0.0283
     13 C         -41.7185   -4.8436   -7.5321 C.3     1  UNL1       -0.0341
     14 C         -40.5665   -5.8380   -7.4003 C.3     1  UNL1       -0.0331
     15 C         -39.2936   -5.0835   -7.6899 C.3     1  UNL1       -0.0189
     16 C         -39.5434   -4.7080   -9.2698 C.3     1  UNL1       -0.0480
     17 C         -40.7651   -3.7543   -9.4519 C.3     1  UNL1       -0.0490
     18 C         -41.5859   -5.7400   -6.3100 C.3     1  UNL1       -0.0463
     19 C         -38.7844   -2.0902   -8.3198 C.2     1  UNL1        0.0469
     20 C         -37.1535   -0.6675   -2.9915 C.ar    1  UNL1        0.1387
     21 F         -40.9077   -4.5838   -2.9947 F       1  UNL1       -0.2003
     22 F         -38.5375    2.0967   -6.8851 F       1  UNL1       -0.2039
     23 N         -38.4774   -2.2382   -1.7899 N.ar    1  UNL1       -0.2313
     24 N         -38.2005   -2.5006   -4.1815 N.ar    1  UNL1       -0.2082
     25 N         -39.6719   -3.9874   -5.3529 N.pl3   1  UNL1       -0.3229
     26 N         -36.2601    2.5951   -4.0905 N.ar    1  UNL1       -0.2332
     27 N         -35.9309    0.9536   -2.3437 N.ar    1  UNL1       -0.2595
     28 N         -36.3124   -0.2971   -2.0014 N.ar    1  UNL1       -0.1683
     29 O         -37.5390   -2.1706   -7.8702 O.co2   1  UNL1       -0.5495
     30 O         -38.9584   -1.5062   -9.3948 O.co2   1  UNL1       -0.5495
     31 H         -38.6902   -0.1056   -5.5017 H       1  UNL1        0.0654
     32 H         -36.8742    3.6513   -5.7329 H       1  UNL1        0.0859
     33 H         -39.9050   -3.4433   -0.9455 H       1  UNL1        0.0861
     34 H         -38.0610   -3.6478   -6.5510 H       1  UNL1        0.0507
     35 H         -40.2978   -1.9203   -6.8410 H       1  UNL1        0.0381
     36 H         -41.9434   -2.7007   -7.7753 H       1  UNL1        0.0310
     37 H         -42.6444   -4.5693   -7.9928 H       1  UNL1        0.0306
     38 H         -40.1228   -6.7511   -7.7385 H       1  UNL1        0.0307
     39 H         -38.3803   -5.6157   -7.5239 H       1  UNL1        0.0322
     40 H         -39.7237   -5.6102   -9.8160 H       1  UNL1        0.0269
     41 H         -38.6718   -4.2057   -9.6344 H       1  UNL1        0.0269
     42 H         -40.4836   -2.8741   -9.9913 H       1  UNL1        0.0268
     43 H         -41.5584   -4.2033  -10.0123 H       1  UNL1        0.0268
     44 H         -42.2811   -6.5390   -6.1573 H       1  UNL1        0.0271
     45 H         -41.5437   -5.5707   -5.2543 H       1  UNL1        0.0271
     46 H         -40.4948   -4.5229   -5.2807 H       1  UNL1        0.1478
     47 H         -35.3204    1.4972   -1.7951 H       1  UNL1        0.1905
@<TRIPOS>BOND
     1     1    22    1
     2     1     5   ar
     3     1     2   ar
     4     2     3   ar
     5     3     4   ar
     6     3    20   ar
     7     4    26   ar
     8     4    27   ar
     9     5    26   ar
    10     6    24   ar
    11     6    20    1
    12     6    23   ar
    13     7     8   ar
    14     7    23   ar
    15     8     9   ar
    16     8    21    1
    17     9    25    1
    18     9    24   ar
    19    10    15    1
    20    10    11    1
    21    10    25    1
    22    11    12    1
    23    12    17    1
    24    12    13    1
    25    13    14    1
    26    13    18    1
    27    14    18    1
    28    14    15    1
    29    15    16    1
    30    16    17    1
    31    19    30   ar
    32    19    29   ar
    33    20    28   ar
    34    27    28   ar
    35    11    19    1
    36     2    31    1
    37     5    32    1
    38     7    33    1
    39    10    34    1
    40    11    35    1
    41    12    36    1
    42    13    37    1
    43    14    38    1
    44    15    39    1
    45    16    40    1
    46    16    41    1
    47    17    42    1
    48    17    43    1
    49    18    44    1
    50    18    45    1
    51    25    46    1
    52    27    47    1
@<TRIPOS>SUBSTRUCTURE
     1 UNL1        1 TEMP              0 ****  ****    0 ROOT


##########                                Name:resultados/dock6_redocking/prepared_inputs/ligand_dock.pdb
##########                DOCK_Rotatable_Bonds:                   4
##########                         Heavy_Atoms:                  30
##########                    Molecular_Weight:          411.390961
##########                DOCK_Rotatable_Bonds:                   4
##########                       Formal_Charge:           -1.000000
##########                     HBond_Acceptors:                  10
##########                        HBond_Donors:                   2
##########                         Heavy_Atoms:                  30
##########                        Cluster_Size:                   2
##########                          Grid_Score:          -52.453796
##########                     Grid_vdw_energy:          -40.406090
##########                      Grid_es_energy:          -12.047706
##########           Internal_energy_repulsive:           29.690849

@<TRIPOS>MOLECULE
resultados/dock6_redocking/prepared_inputs/ligand_dock.pdb
 47 52 1 0 0
SMALL
GASTEIGER


@<TRIPOS>ATOM
      1 C         -36.8983   -0.5694   -2.9482 C.ar    1  UNL1        0.1422
      2 C         -37.6071   -0.6489   -4.1387 C.ar    1  UNL1       -0.0120
      3 C         -37.7304    0.5370   -4.8853 C.ar    1  UNL1        0.0520
      4 C         -37.1025    1.6697   -4.3985 C.ar    1  UNL1        0.1565
      5 C         -36.3350    0.6359   -2.5577 C.ar    1  UNL1        0.0651
      6 C         -39.0082    0.0492   -7.0747 C.ar    1  UNL1        0.1827
      7 C         -38.7460   -1.3442   -8.8651 C.ar    1  UNL1        0.0686
      8 C         -39.8459   -2.0608   -8.4868 C.ar    1  UNL1        0.1809
      9 C         -40.5835   -1.6119   -7.3873 C.ar    1  UNL1        0.1585
     10 C         -42.4733   -2.2130   -5.7551 C.3     1  UNL1        0.0333
     11 C         -41.7309   -2.7386   -4.5536 C.3     1  UNL1        0.0203
     12 C         -42.0232   -4.3064   -4.4855 C.3     1  UNL1       -0.0283
     13 C         -42.5825   -5.1355   -5.7493 C.3     1  UNL1       -0.0341
     14 C         -43.7148   -4.3747   -6.4365 C.3     1  UNL1       -0.0331
     15 C         -43.8489   -3.0478   -5.7332 C.3     1  UNL1       -0.0189
     16 C         -44.3288   -3.5642   -4.2492 C.3     1  UNL1       -0.0480
     17 C         -43.2246   -4.4147   -3.5472 C.3     1  UNL1       -0.0490
     18 C         -42.6286   -4.9871   -7.2628 C.3     1  UNL1       -0.0463
     19 C         -42.2160   -1.7801   -3.4218 C.2     1  UNL1        0.0469
     20 C         -38.3146    0.9359   -6.1290 C.ar    1  UNL1        0.1387
     21 F         -40.1687   -3.1889   -9.1257 F       1  UNL1       -0.2003
     22 F         -36.7524   -1.6653   -2.1909 F       1  UNL1       -0.2039
     23 N         -38.2980   -0.2812   -8.1741 N.ar    1  UNL1       -0.2313
     24 N         -40.1478   -0.5653   -6.6369 N.ar    1  UNL1       -0.2082
     25 N         -41.6228   -2.4301   -6.9453 N.pl3   1  UNL1       -0.3229
     26 N         -36.4035    1.7972   -3.2556 N.ar    1  UNL1       -0.2332
     27 N         -37.3043    2.6377   -5.3380 N.ar    1  UNL1       -0.2595
     28 N         -38.0466    2.2335   -6.3928 N.ar    1  UNL1       -0.1683
     29 O         -43.0823   -0.8471   -3.7945 O.co2   1  UNL1       -0.5495
     30 O         -41.8662   -1.7825   -2.2367 O.co2   1  UNL1       -0.5495
     31 H         -38.0241   -1.5362   -4.4609 H       1  UNL1        0.0654
     32 H         -35.8215    0.6509   -1.6627 H       1  UNL1        0.0859
     33 H         -38.2379   -1.6306   -9.7164 H       1  UNL1        0.0861
     34 H         -42.6932   -1.1659   -5.7613 H       1  UNL1        0.0507
     35 H         -40.6615   -2.7177   -4.5220 H       1  UNL1        0.0381
     36 H         -41.0563   -4.7102   -4.2689 H       1  UNL1        0.0310
     37 H         -42.2482   -6.0090   -5.2295 H       1  UNL1        0.0306
     38 H         -44.7492   -4.3543   -6.7096 H       1  UNL1        0.0307
     39 H         -44.5261   -2.3458   -6.1730 H       1  UNL1        0.0322
     40 H         -45.2094   -4.1621   -4.3584 H       1  UNL1        0.0269
     41 H         -44.5213   -2.7035   -3.6434 H       1  UNL1        0.0269
     42 H         -42.9913   -4.0141   -2.5828 H       1  UNL1        0.0268
     43 H         -43.5277   -5.4273   -3.3811 H       1  UNL1        0.0268
     44 H         -42.8408   -5.8384   -7.8754 H       1  UNL1        0.0271
     45 H         -41.9493   -4.6196   -8.0034 H       1  UNL1        0.0271
     46 H         -41.8095   -3.2348   -7.4806 H       1  UNL1        0.1478
     47 H         -36.9416    3.5492   -5.2551 H       1  UNL1        0.1905
@<TRIPOS>BOND
     1     1    22    1
     2     1     5   ar
     3     1     2   ar
     4     2     3   ar
     5     3     4   ar
     6     3    20   ar
     7     4    26   ar
     8     4    27   ar
     9     5    26   ar
    10     6    24   ar
    11     6    20    1
    12     6    23   ar
    13     7     8   ar
    14     7    23   ar
    15     8     9   ar
    16     8    21    1
    17     9    25    1
    18     9    24   ar
    19    10    15    1
    20    10    11    1
    21    10    25    1
    22    11    12    1
    23    12    17    1
    24    12    13    1
    25    13    14    1
    26    13    18    1
    27    14    18    1
    28    14    15    1
    29    15    16    1
    30    16    17    1
    31    19    30   ar
    32    19    29   ar
    33    20    28   ar
    34    27    28   ar
    35    11    19    1
    36     2    31    1
    37     5    32    1
    38     7    33    1
    39    10    34    1
    40    11    35    1
    41    12    36    1
    42    13    37    1
    43    14    38    1
    44    15    39    1
    45    16    40    1
    46    16    41    1
    47    17    42    1
    48    17    43    1
    49    18    44    1
    50    18    45    1
    51    25    46    1
    52    27    47    1
@<TRIPOS>SUBSTRUCTURE
     1 UNL1        1 TEMP              0 ****  ****    0 ROOT

